<?xml version='1.0' encoding='UTF-8'?>
<edges><edge id="0_0_1_0" from="0_0" to="1_0" numLanes="1" speed="13.9" /><edge id="0_0_0_1" from="0_0" to="0_1" numLanes="1" speed="13.9" /><edge id="0_1_1_1" from="0_1" to="1_1" numLanes="1" speed="13.9" /><edge id="1_0_1_1" from="1_0" to="1_1" numLanes="1" speed="13.9" /></edges>