<?xml version="1.0" encoding="UTF-8"?>

<!-- generated on 2025-06-14 11:10:42 by Eclipse SUMO netconvert Version 1.23.1
<netconvertConfiguration xmlns:xsi="http://www.w3.org/2001/XMLSchema-instance" xsi:noNamespaceSchemaLocation="http://sumo.dlr.de/xsd/netconvertConfiguration.xsd">

    <input>
        <node-files value="sumo_tmp\nodes.nod.xml"/>
        <edge-files value="sumo_tmp\edges.edg.xml"/>
    </input>

    <output>
        <output-file value="sumo_tmp\network.net.xml"/>
    </output>

</netconvertConfiguration>
-->

<net version="1.20" junctionCornerDetail="5" limitTurnSpeed="5.50" xmlns:xsi="http://www.w3.org/2001/XMLSchema-instance" xsi:noNamespaceSchemaLocation="http://sumo.dlr.de/xsd/net_file.xsd">

    <location netOffset="0.00,0.00" convBoundary="0.00,0.00,100.00,100.00" origBoundary="0.00,0.00,100.00,100.00" projParameter="!"/>

    <edge id=":0_1_0" function="internal">
        <lane id=":0_1_0_0" index="0" speed="3.90" length="2.58" shape="1.60,96.80 1.70,97.50 2.00,98.00 2.50,98.30 3.20,98.40"/>
    </edge>
    <edge id=":1_0_0" function="internal">
        <lane id=":1_0_0_0" index="0" speed="3.90" length="2.58" shape="100.00,-1.60 100.70,-1.50 101.20,-1.20 101.50,-0.70 101.60,0.00"/>
    </edge>

    <edge id="0_0_0_1" from="0_0" to="0_1" priority="-1">
        <lane id="0_0_0_1_0" index="0" speed="13.90" length="95.30" shape="1.60,1.50 1.60,96.80"/>
    </edge>
    <edge id="0_0_1_0" from="0_0" to="1_0" priority="-1">
        <lane id="0_0_1_0_0" index="0" speed="13.90" length="95.30" shape="4.70,-1.60 100.00,-1.60"/>
    </edge>
    <edge id="0_1_1_1" from="0_1" to="1_1" priority="-1">
        <lane id="0_1_1_1_0" index="0" speed="13.90" length="95.30" shape="3.20,98.40 98.50,98.40"/>
    </edge>
    <edge id="1_0_1_1" from="1_0" to="1_1" priority="-1">
        <lane id="1_0_1_1_0" index="0" speed="13.90" length="95.30" shape="101.60,0.00 101.60,95.30"/>
    </edge>

    <junction id="0_0" type="dead_end" x="0.00" y="0.00" incLanes="" intLanes="" shape="0.00,1.50 3.20,1.50 3.37,0.67 3.57,0.38 3.87,0.17 4.24,0.04 4.70,0.00 4.70,-3.20 2.09,-2.68 1.18,-2.03 0.52,-1.11 0.13,0.06"/>
    <junction id="0_1" type="priority" x="0.00" y="100.00" incLanes="0_0_0_1_0" intLanes=":0_1_0_0" shape="3.20,100.00 3.20,96.80 0.00,96.80 0.36,98.58 0.80,99.20 1.42,99.64 2.22,99.91">
        <request index="0" response="0" foes="0" cont="0"/>
    </junction>
    <junction id="1_0" type="priority" x="100.00" y="0.00" incLanes="0_0_1_0_0" intLanes=":1_0_0_0" shape="100.00,0.00 103.20,0.00 102.84,-1.78 102.40,-2.40 101.78,-2.84 100.98,-3.11 100.00,-3.20">
        <request index="0" response="0" foes="0" cont="0"/>
    </junction>
    <junction id="1_1" type="dead_end" x="100.00" y="100.00" incLanes="1_0_1_1_0 0_1_1_1_0" intLanes="" shape="103.20,95.30 100.00,95.30 99.83,96.13 99.62,96.43 99.33,96.63 98.96,96.76 98.50,96.80 98.50,100.00 101.11,99.48 102.02,98.83 102.68,97.91 103.07,96.74"/>

    <connection from="0_0_0_1" to="0_1_1_1" fromLane="0" toLane="0" via=":0_1_0_0" dir="r" state="M"/>
    <connection from="0_0_1_0" to="1_0_1_1" fromLane="0" toLane="0" via=":1_0_0_0" dir="l" state="M"/>

    <connection from=":0_1_0" to="0_1_1_1" fromLane="0" toLane="0" dir="r" state="M"/>
    <connection from=":1_0_0" to="1_0_1_1" fromLane="0" toLane="0" dir="l" state="M"/>

</net>
