<?xml version='1.0' encoding='UTF-8'?>
<nodes><node id="0_0" x="0" y="0" /><node id="0_1" x="0" y="100" /><node id="1_0" x="100" y="0" /><node id="1_1" x="100" y="100" /></nodes>