<routes>
  <vType id="car" accel="1.0" decel="4.5" length="5" minGap="2.5" maxSpeed="13.9" guiShape="passenger"/>
  <route id="r0" edges="0_0_1_0 1_0_1_1"/>
  <vehicle id="veh0" type="car" route="r0" depart="0.0"/>
  <vehicle id="veh1" type="car" route="r0" depart="36.0"/>
  <vehicle id="veh2" type="car" route="r0" depart="72.0"/>
  <vehicle id="veh3" type="car" route="r0" depart="108.0"/>
  <vehicle id="veh4" type="car" route="r0" depart="144.0"/>
  <vehicle id="veh5" type="car" route="r0" depart="180.0"/>
  <vehicle id="veh6" type="car" route="r0" depart="216.0"/>
  <vehicle id="veh7" type="car" route="r0" depart="252.0"/>
  <vehicle id="veh8" type="car" route="r0" depart="288.0"/>
  <vehicle id="veh9" type="car" route="r0" depart="324.0"/>
  <vehicle id="veh10" type="car" route="r0" depart="360.0"/>
  <vehicle id="veh11" type="car" route="r0" depart="396.0"/>
  <vehicle id="veh12" type="car" route="r0" depart="432.0"/>
  <vehicle id="veh13" type="car" route="r0" depart="468.0"/>
  <vehicle id="veh14" type="car" route="r0" depart="504.0"/>
  <vehicle id="veh15" type="car" route="r0" depart="540.0"/>
  <vehicle id="veh16" type="car" route="r0" depart="576.0"/>
  <vehicle id="veh17" type="car" route="r0" depart="612.0"/>
  <vehicle id="veh18" type="car" route="r0" depart="648.0"/>
  <vehicle id="veh19" type="car" route="r0" depart="684.0"/>
  <vehicle id="veh20" type="car" route="r0" depart="720.0"/>
  <vehicle id="veh21" type="car" route="r0" depart="756.0"/>
  <vehicle id="veh22" type="car" route="r0" depart="792.0"/>
  <vehicle id="veh23" type="car" route="r0" depart="828.0"/>
  <vehicle id="veh24" type="car" route="r0" depart="864.0"/>
  <vehicle id="veh25" type="car" route="r0" depart="900.0"/>
  <vehicle id="veh26" type="car" route="r0" depart="936.0"/>
  <vehicle id="veh27" type="car" route="r0" depart="972.0"/>
  <vehicle id="veh28" type="car" route="r0" depart="1008.0"/>
  <vehicle id="veh29" type="car" route="r0" depart="1044.0"/>
  <vehicle id="veh30" type="car" route="r0" depart="1080.0"/>
  <vehicle id="veh31" type="car" route="r0" depart="1116.0"/>
  <vehicle id="veh32" type="car" route="r0" depart="1152.0"/>
  <vehicle id="veh33" type="car" route="r0" depart="1188.0"/>
  <vehicle id="veh34" type="car" route="r0" depart="1224.0"/>
  <vehicle id="veh35" type="car" route="r0" depart="1260.0"/>
  <vehicle id="veh36" type="car" route="r0" depart="1296.0"/>
  <vehicle id="veh37" type="car" route="r0" depart="1332.0"/>
  <vehicle id="veh38" type="car" route="r0" depart="1368.0"/>
  <vehicle id="veh39" type="car" route="r0" depart="1404.0"/>
  <vehicle id="veh40" type="car" route="r0" depart="1440.0"/>
  <vehicle id="veh41" type="car" route="r0" depart="1476.0"/>
  <vehicle id="veh42" type="car" route="r0" depart="1512.0"/>
  <vehicle id="veh43" type="car" route="r0" depart="1548.0"/>
  <vehicle id="veh44" type="car" route="r0" depart="1584.0"/>
  <vehicle id="veh45" type="car" route="r0" depart="1620.0"/>
  <vehicle id="veh46" type="car" route="r0" depart="1656.0"/>
  <vehicle id="veh47" type="car" route="r0" depart="1692.0"/>
  <vehicle id="veh48" type="car" route="r0" depart="1728.0"/>
  <vehicle id="veh49" type="car" route="r0" depart="1764.0"/>
  <vehicle id="veh50" type="car" route="r0" depart="1800.0"/>
  <vehicle id="veh51" type="car" route="r0" depart="1836.0"/>
  <vehicle id="veh52" type="car" route="r0" depart="1872.0"/>
  <vehicle id="veh53" type="car" route="r0" depart="1908.0"/>
  <vehicle id="veh54" type="car" route="r0" depart="1944.0"/>
  <vehicle id="veh55" type="car" route="r0" depart="1980.0"/>
  <vehicle id="veh56" type="car" route="r0" depart="2016.0"/>
  <vehicle id="veh57" type="car" route="r0" depart="2052.0"/>
  <vehicle id="veh58" type="car" route="r0" depart="2088.0"/>
  <vehicle id="veh59" type="car" route="r0" depart="2124.0"/>
  <vehicle id="veh60" type="car" route="r0" depart="2160.0"/>
  <vehicle id="veh61" type="car" route="r0" depart="2196.0"/>
  <vehicle id="veh62" type="car" route="r0" depart="2232.0"/>
  <vehicle id="veh63" type="car" route="r0" depart="2268.0"/>
  <vehicle id="veh64" type="car" route="r0" depart="2304.0"/>
  <vehicle id="veh65" type="car" route="r0" depart="2340.0"/>
  <vehicle id="veh66" type="car" route="r0" depart="2376.0"/>
  <vehicle id="veh67" type="car" route="r0" depart="2412.0"/>
  <vehicle id="veh68" type="car" route="r0" depart="2448.0"/>
  <vehicle id="veh69" type="car" route="r0" depart="2484.0"/>
  <vehicle id="veh70" type="car" route="r0" depart="2520.0"/>
  <vehicle id="veh71" type="car" route="r0" depart="2556.0"/>
  <vehicle id="veh72" type="car" route="r0" depart="2592.0"/>
  <vehicle id="veh73" type="car" route="r0" depart="2628.0"/>
  <vehicle id="veh74" type="car" route="r0" depart="2664.0"/>
  <vehicle id="veh75" type="car" route="r0" depart="2700.0"/>
  <vehicle id="veh76" type="car" route="r0" depart="2736.0"/>
  <vehicle id="veh77" type="car" route="r0" depart="2772.0"/>
  <vehicle id="veh78" type="car" route="r0" depart="2808.0"/>
  <vehicle id="veh79" type="car" route="r0" depart="2844.0"/>
  <vehicle id="veh80" type="car" route="r0" depart="2880.0"/>
  <vehicle id="veh81" type="car" route="r0" depart="2916.0"/>
  <vehicle id="veh82" type="car" route="r0" depart="2952.0"/>
  <vehicle id="veh83" type="car" route="r0" depart="2988.0"/>
  <vehicle id="veh84" type="car" route="r0" depart="3024.0"/>
  <vehicle id="veh85" type="car" route="r0" depart="3060.0"/>
  <vehicle id="veh86" type="car" route="r0" depart="3096.0"/>
  <vehicle id="veh87" type="car" route="r0" depart="3132.0"/>
  <vehicle id="veh88" type="car" route="r0" depart="3168.0"/>
  <vehicle id="veh89" type="car" route="r0" depart="3204.0"/>
  <vehicle id="veh90" type="car" route="r0" depart="3240.0"/>
  <vehicle id="veh91" type="car" route="r0" depart="3276.0"/>
  <vehicle id="veh92" type="car" route="r0" depart="3312.0"/>
  <vehicle id="veh93" type="car" route="r0" depart="3348.0"/>
  <vehicle id="veh94" type="car" route="r0" depart="3384.0"/>
  <vehicle id="veh95" type="car" route="r0" depart="3420.0"/>
  <vehicle id="veh96" type="car" route="r0" depart="3456.0"/>
  <vehicle id="veh97" type="car" route="r0" depart="3492.0"/>
  <vehicle id="veh98" type="car" route="r0" depart="3528.0"/>
  <vehicle id="veh99" type="car" route="r0" depart="3564.0"/>
</routes>
